%chk=phe.005.tddft.chk
# td=(nstat=3) b3lyp/6-31g(d)

phe | No.5

0 1
 C	-1.407174	-0.326955	-0.069361
 H	-1.240246	-1.227450	0.554066
 N	-1.292880	-0.589583	-1.507645
 H	-0.344017	-0.901581	-1.707673
 H	-1.922348	-1.343536	-1.773328
 C	-2.835024	0.106626	0.248390
 O	-3.164048	1.040041	0.944184
 O	-3.739984	-0.730435	-0.320682
 H	-4.619347	-0.390317	-0.069332
 C	-0.407743	0.759371	0.354623
 H	-0.619943	1.026985	1.396560
 H	-0.604595	1.653604	-0.245025
 C	1.046500	0.348925	0.208578
 C	1.952693	1.185299	-0.457002
 C	1.538563	-0.836239	0.777861
 C	3.303441	0.848485	-0.562326
 H	1.592122	2.110271	-0.900839
 C	2.886619	-1.179396	0.671873
 H	0.865253	-1.496043	1.320644
 C	3.775487	-0.337660	0.000135
 H	3.985349	1.513894	-1.085474
 H	3.244002	-2.102844	1.120421
 H	4.826019	-0.603497	-0.081148



