%chk=phe.003.tddft.chk
# td=(nstat=3) b3lyp/6-31g(d)

phe | No.3

0 1
 C	-1.381270	0.012619	-0.325151
 H	-1.176569	-0.767905	-1.085203
 N	-1.253511	1.376377	-0.846931
 H	-0.297649	1.513370	-1.171430
 H	-1.866795	1.499057	-1.649452
 C	-2.823428	-0.228381	0.110414
 O	-3.182669	-0.763482	1.134324
 O	-3.701397	0.195115	-0.834700
 H	-4.591255	-0.000833	-0.485460
 C	-0.415650	-0.200784	0.853792
 H	-0.646168	-1.168730	1.311292
 H	-0.623549	0.567378	1.605219
 C	1.039431	-0.148159	0.433980
 C	1.861272	0.921711	0.812269
 C	1.602536	-1.177744	-0.336278
 C	3.203165	0.968978	0.426973
 H	1.443256	1.724519	1.414927
 C	2.941154	-1.134195	-0.724450
 H	0.987657	-2.027593	-0.626169
 C	3.747170	-0.058361	-0.344010
 H	3.822588	1.808037	0.733191
 H	3.357779	-1.943972	-1.317992
 H	4.791525	-0.025133	-0.642627



