%chk=phe.008.tddft.chk
# td=(nstat=3) b3lyp/6-31g(d)

phe | No.8

0 1
 C	-1.432357	-0.334400	0.050296
 H	-1.274338	-0.947246	0.960138
 N	-1.382832	-1.109073	-1.194275
 H	-0.447721	-1.494583	-1.310241
 H	-2.032999	-1.889952	-1.145445
 C	-2.835685	0.241798	0.218826
 O	-3.114448	1.376863	0.531042
 O	-3.782178	-0.710012	0.016909
 H	-4.642642	-0.268215	0.145160
 C	-0.395107	0.791724	0.027139
 H	-0.586287	1.443447	0.888604
 H	-0.581984	1.403111	-0.862778
 C	1.060378	0.350865	0.041557
 C	2.042051	1.252641	-0.397743
 C	1.485112	-0.893480	0.527547
 C	3.396067	0.925705	-0.357308
 H	1.734796	2.224135	-0.778967
 C	2.841596	-1.228335	0.565496
 H	0.758717	-1.617148	0.888242
 C	3.802978	-0.320822	0.124196
 H	4.134336	1.643447	-0.705621
 H	3.143124	-2.201726	0.943996
 H	4.857645	-0.580747	0.153191



