%chk=phe.007.tddft.chk
# td=(nstat=3) b3lyp/6-31g(d)

phe | No.7

0 1
 C	-1.427652	-0.339988	0.035381
 H	-1.287197	-1.032556	0.888925
 N	-1.335394	-0.998659	-1.271662
 H	-0.395518	-1.373431	-1.386644
 H	-1.983769	-1.781564	-1.313006
 C	-2.840303	0.207679	0.217512
 O	-3.138099	1.310170	0.616677
 O	-3.771925	-0.731639	-0.087178
 H	-4.639749	-0.309168	0.055879
 C	-0.400778	0.793068	0.139997
 H	-0.594052	1.338558	1.072172
 H	-0.594235	1.500282	-0.673421
 C	1.054690	0.356474	0.096622
 C	2.014253	1.228711	-0.438299
 C	1.500469	-0.862536	0.628205
 C	3.368797	0.898024	-0.446701
 H	1.690249	2.179108	-0.856538
 C	2.855649	-1.201142	0.616974
 H	0.790031	-1.559924	1.065101
 C	3.796081	-0.322334	0.080124
 H	4.090303	1.592438	-0.869435
 H	3.174276	-2.153768	1.032522
 H	4.850371	-0.585338	0.071203



