%chk=phe.012.tddft.chk
# td=(nstat=3) b3lyp/6-31g(d)

phe | No.12

0 1
 C	-1.432145	-0.346369	0.018134
 H	-1.115080	-0.695740	1.019945
 N	-1.666028	-1.438673	-0.938151
 H	-0.786989	-1.901405	-1.156118
 H	-2.289135	-2.133876	-0.533851
 C	-2.761731	0.369599	0.258334
 O	-2.944800	1.565284	0.281614
 O	-3.755315	-0.521122	0.504064
 H	-4.562328	0.006547	0.652942
 C	-0.373119	0.628424	-0.512452
 H	-0.590816	1.621533	-0.107734
 H	-0.519586	0.707017	-1.598797
 C	1.074714	0.279636	-0.204967
 C	2.039027	1.297492	-0.272456
 C	1.505052	-1.004595	0.154159
 C	3.383504	1.040618	-0.011337
 H	1.726030	2.306070	-0.534118
 C	2.851368	-1.267417	0.421502
 H	0.789368	-1.818225	0.239302
 C	3.797175	-0.247310	0.336979
 H	4.107966	1.848785	-0.071137
 H	3.156470	-2.273202	0.698881
 H	4.844149	-0.450556	0.544941



