%chk=phe.011.tddft.chk
# td=(nstat=3) b3lyp/6-31g(d)

phe | No.11

0 1
 C	-1.433767	-0.334915	0.028673
 H	-1.158597	-0.746614	1.019631
 N	-1.591247	-1.360243	-1.012111
 H	-0.691284	-1.791382	-1.209128
 H	-2.221778	-2.092299	-0.693696
 C	-2.788292	0.337128	0.251420
 O	-2.996208	1.524461	0.355291
 O	-3.774894	-0.585964	0.376032
 H	-4.598990	-0.084362	0.521513
 C	-0.377268	0.696805	-0.377751
 H	-0.585212	1.626167	0.162597
 H	-0.534374	0.925087	-1.440630
 C	1.073978	0.305478	-0.142961
 C	2.062142	1.291253	-0.297523
 C	1.485846	-0.976737	0.242216
 C	3.409663	1.004975	-0.092105
 H	1.764451	2.297858	-0.583976
 C	2.836950	-1.269300	0.452134
 H	0.754161	-1.766434	0.390814
 C	3.804780	-0.281569	0.284034
 H	4.152541	1.788243	-0.219339
 H	3.127454	-2.273410	0.750454
 H	4.854965	-0.507833	0.447134



