%chk=phe.010.tddft.chk
# td=(nstat=3) b3lyp/6-31g(d)

phe | No.10

0 1
 C	-1.434695	-0.329482	0.040639
 H	-1.202763	-0.804304	1.014650
 N	-1.516031	-1.281382	-1.074559
 H	-0.599419	-1.690398	-1.240991
 H	-2.155143	-2.038737	-0.844927
 C	-2.809770	0.304998	0.240396
 O	-3.042553	1.479127	0.416526
 O	-3.785552	-0.637960	0.248754
 H	-4.624361	-0.158975	0.386349
 C	-0.382693	0.746181	-0.238868
 H	-0.581936	1.594439	0.425460
 H	-0.550607	1.116095	-1.258466
 C	1.070940	0.325322	-0.080777
 C	2.069233	1.281904	-0.327702
 C	1.476545	-0.949436	0.334283
 C	3.419399	0.975396	-0.177926
 H	1.776911	2.281393	-0.643244
 C	2.831076	-1.262919	0.485652
 H	0.738380	-1.717175	0.550195
 C	3.808036	-0.303692	0.229760
 H	4.170067	1.735971	-0.376862
 H	3.116900	-2.261109	0.807438
 H	4.860604	-0.546490	0.347332



