%chk=phe.004.tddft.chk
# td=(nstat=3) b3lyp/6-31g(d)

phe | No.4

0 1
 C	-1.393447	-0.229983	-0.234200
 H	-1.203885	-1.320806	-0.187387
 N	-1.274445	0.320183	-1.588170
 H	-0.320719	0.175721	-1.915899
 H	-1.891915	-0.182361	-2.221811
 C	-2.828957	-0.059200	0.253305
 O	-3.173909	0.340264	1.342014
 O	-3.719454	-0.464967	-0.687753
 H	-4.604417	-0.330066	-0.299429
 C	-0.411497	0.475739	0.714951
 H	-0.634775	0.151110	1.737497
 H	-0.611598	1.550902	0.672019
 C	1.042684	0.200802	0.382826
 C	1.912830	1.249009	0.056301
 C	1.564234	-1.101933	0.430581
 C	3.259316	1.006986	-0.225410
 H	1.528627	2.265664	0.020694
 C	2.907141	-1.349035	0.147618
 H	0.915232	-1.931724	0.703036
 C	3.760868	-0.293751	-0.182708
 H	3.914697	1.836886	-0.476774
 H	3.289568	-2.365603	0.192083
 H	4.808174	-0.485173	-0.400511



