%chk=phe.013.tddft.chk
# td=(nstat=3) b3lyp/6-31g(d)

phe | No.13

0 1
 C	-1.430207	-0.363509	0.013537
 H	-1.075630	-0.647690	1.022912
 N	-1.735837	-1.517872	-0.845873
 H	-0.880243	-2.022429	-1.064458
 H	-2.356953	-2.161679	-0.361058
 C	-2.732099	0.401626	0.257944
 O	-2.891685	1.598950	0.190673
 O	-3.728700	-0.442928	0.624978
 H	-4.517272	0.113362	0.768338
 C	-0.370747	0.541202	-0.636078
 H	-0.598823	1.578068	-0.373015
 H	-0.507404	0.468055	-1.724295
 C	1.073377	0.247086	-0.264934
 C	1.999590	1.300749	-0.252323
 C	1.535843	-1.033255	0.070043
 C	3.340396	1.083550	0.062741
 H	1.660830	2.305945	-0.493480
 C	2.876358	-1.256431	0.392079
 H	0.847269	-1.874244	0.094126
 C	3.785927	-0.199413	0.386330
 H	4.035481	1.919251	0.064728
 H	3.206873	-2.259497	0.649481
 H	4.829187	-0.371835	0.636591



