%chk=phe.009.tddft.chk
# td=(nstat=3) b3lyp/6-31g(d)

phe | No.9

0 1
 C	-1.434492	-0.329908	0.049371
 H	-1.243264	-0.871359	0.997344
 N	-1.445530	-1.199185	-1.132922
 H	-0.517646	-1.594318	-1.269816
 H	-2.092101	-1.972095	-0.993806
 C	-2.825560	0.273528	0.228354
 O	-3.082348	1.430638	0.470900
 O	-3.787394	-0.678859	0.129095
 H	-4.638299	-0.219384	0.258817
 C	-0.388769	0.777014	-0.101833
 H	-0.582320	1.530935	0.670414
 H	-0.566652	1.275960	-1.062010
 C	1.066184	0.340276	-0.018687
 C	2.061739	1.269439	-0.361098
 C	1.476740	-0.922128	0.429330
 C	3.414182	0.949976	-0.266781
 H	1.765744	2.257193	-0.708353
 C	2.833089	-1.249135	0.522825
 H	0.740698	-1.668596	0.715838
 C	3.807394	-0.315850	0.175718
 H	4.162892	1.689165	-0.539856
 H	3.123044	-2.237318	0.870768
 H	4.861519	-0.569398	0.247954



