%chk=phe.chk
# opt=modredundant b3lyp/6-31g(d)

L-(-)-Phenylalanine

0 1
 C                 -0.89193234    2.23099974   -0.00751804
 H                 -1.92819923    1.96448670   -0.01218037
 N                 -0.07217764    1.01079816   -0.00430561
 H                 -0.28119007    0.47095334    0.81109698
 H                 -0.27398267    0.47149626   -0.82188019
 C                 -0.57005320    3.06236076   -1.26323802
 O                 -0.67602608    4.31590466   -1.23212514
 O                 -0.15074169    2.40985715   -2.46461927
 H                  0.43099370    2.99213229   -2.95872411
 C                 -0.58115259    3.06152466    1.25154681
 H                 -1.17784479    3.94969861    1.24920851
 H                  0.45511430    3.32803770    1.25620915
 C                 -0.90303174    2.23016365    2.50726680
 C                  0.08474005    1.42009884    3.08348191
 C                 -2.18371355    2.28368993    3.07375686
 C                 -0.20817056    0.66355875    4.22618591
 H                  1.06256865    1.37922930    2.65095339
 C                 -2.47662299    1.52715293    4.21646321
 H                 -2.93789963    2.90219133    2.63380304
 C                 -1.48885144    0.71708750    4.79267785
 H                  0.54601463    0.04505500    4.66613796
 H                 -3.45445206    1.56802123    4.64899079
 H                 -1.71249471    0.13945362    5.66515868

D 1 10 13 14 S 18 10.000000

